AMOSTRA/_AT/Fontes.dss
! ==========================================================
! FONTES — uma por patio de AT energizado
! 
! A malha de 88 kV da BDGD nao e conexa (844 componentes), e as
! subestacoes da transmissora nao tem barra nesta exportacao.
! Por isso cada patio de AT com transformador recebe sua propria
! fonte no ponto de conexao. Onde ha cabeceira de circuito de AT
! (CTAT.PAC_INI) ela e usada; senao, injeta-se no primario do
! transformador, o que e um equivalente explicito.
! 
! MVAsc: da potencia instalada declarada pela ISA quando a
! subestacao e uma ETT conhecida; senao o padrao documentado.
! ==========================================================
! MOL: 3 trafo(s) em 138 kV, equivalente no primario do trafo, MVAsc=2500 (padrao)
New Circuit.ENEL_SP basekV=138 pu=1.0 phases=3 bus1=mal_490000570 Angle=0 MVAsc3=2500 MVAsc1=2000
! TUM: 3 trafo(s) em 138 kV, equivalente no primario do trafo, MVAsc=2500 (padrao)
New Vsource.FONTE_TUM_barra_at_tum bus1=barra_at_tum basekV=138 pu=1.0 phases=3 Angle=0 MVAsc3=2500 MVAsc1=2000
! CSO: 2 trafo(s) em 138 kV, equivalente no primario do trafo, MVAsc=2500 (padrao)
New Vsource.FONTE_CSO_cso_49000011 bus1=cso_490000119 basekV=138 pu=1.0 phases=3 Angle=0 MVAsc3=2500 MVAsc1=2000
! ABA: 2 trafo(s) em 88 kV, equivalente no primario do trafo, MVAsc=2500 (padrao)
New Vsource.FONTE_ABA_aba_49000053 bus1=aba_490000531 basekV=88 pu=1.0 phases=3 Angle=0 MVAsc3=2500 MVAsc1=2000
! RIM: 2 trafo(s) em 138 kV, equivalente no primario do trafo, MVAsc=2500 (padrao)
New Vsource.FONTE_RIM_rim_49000007 bus1=rim_490000072 basekV=138 pu=1.0 phases=3 Angle=0 MVAsc3=2500 MVAsc1=2000
! TAI: 2 trafo(s) em 138 kV, equivalente no primario do trafo, MVAsc=2500 (padrao)
New Vsource.FONTE_TAI_tai_49000034 bus1=tai_490000346 basekV=138 pu=1.0 phases=3 Angle=0 MVAsc3=2500 MVAsc1=2000
! CAP: 2 trafo(s) em 138 kV, equivalente no primario do trafo, MVAsc=2500 (padrao)
New Vsource.FONTE_CAP_barra_at_cap bus1=barra_at_cap basekV=138 pu=1.0 phases=3 Angle=0 MVAsc3=2500 MVAsc1=2000
! GOI: 3 trafo(s) em 88 kV, equivalente no primario do trafo, MVAsc=2500 (padrao)
New Vsource.FONTE_GOI_goi_49000008 bus1=goi_490000089 basekV=88 pu=1.0 phases=3 Angle=0 MVAsc3=2500 MVAsc1=2000
