AMOSTRA/_global/LineCodes.dss
! ==========================================================
! LINECODES — gerados de SEGCON
! R1/X1: dado da BDGD (ohm/km)
! R0/X0: PREMISSA — R0=3.0 x R1, X0=3.5 x X1
!        A BDGD nao traz sequencia zero. Ver README, secao "Limitacoes".
! normamps = CNOM (capacidade nominal), emergamps = CMAX
!
! COERENCIA R1 x CNOM: 0 condutores tiveram a resistencia substituida
! por estarem mais de 7.4x acima do previsto pelo ajuste calibrado nesta
! propria base (R1 = 556.6 x CNOM^-1.237, n=582). Cada um esta
! marcado com "!! R1 CORRIGIDO" na sua linha. Ver README.
! ==========================================================

New LineCode.CND_B30_61_1F nphases=1 basefreq=60 units=km r1=0.60420 x1=0.45130 r0=1.81260 x0=1.57955 normamps=235.0 emergamps=235.0
New LineCode.CND_B30_61_2F nphases=2 basefreq=60 units=km r1=0.60420 x1=0.45130 r0=1.81260 x0=1.57955 normamps=235.0 emergamps=235.0
New LineCode.CND_B30_61_3F nphases=3 basefreq=60 units=km r1=0.60420 x1=0.45130 r0=1.81260 x0=1.57955 normamps=235.0 emergamps=235.0
New LineCode.CND_B30_18_1F nphases=1 basefreq=60 units=km r1=0.30180 x1=0.42490 r0=0.90540 x0=1.48715 normamps=365.0 emergamps=365.0
New LineCode.CND_B30_18_2F nphases=2 basefreq=60 units=km r1=0.30180 x1=0.42490 r0=0.90540 x0=1.48715 normamps=365.0 emergamps=365.0
New LineCode.CND_B30_18_3F nphases=3 basefreq=60 units=km r1=0.30180 x1=0.42490 r0=0.90540 x0=1.48715 normamps=365.0 emergamps=365.0
New LineCode.CND_B30_286_1F nphases=1 basefreq=60 units=km r1=1.53010 x1=0.50000 r0=4.59030 x0=1.75000 normamps=130.0 emergamps=130.0
New LineCode.CND_B30_286_2F nphases=2 basefreq=60 units=km r1=1.53010 x1=0.50000 r0=4.59030 x0=1.75000 normamps=130.0 emergamps=130.0
New LineCode.CND_B30_286_3F nphases=3 basefreq=60 units=km r1=1.53010 x1=0.50000 r0=4.59030 x0=1.75000 normamps=130.0 emergamps=130.0
New LineCode.CND_B20_8_1F nphases=1 basefreq=60 units=km r1=0.59910 x1=0.47000 r0=1.79730 x0=1.64500 normamps=90.0 emergamps=90.0
New LineCode.CND_B20_8_2F nphases=2 basefreq=60 units=km r1=0.59910 x1=0.47000 r0=1.79730 x0=1.64500 normamps=90.0 emergamps=90.0
New LineCode.CND_B20_8_3F nphases=3 basefreq=60 units=km r1=0.59910 x1=0.47000 r0=1.79730 x0=1.64500 normamps=90.0 emergamps=90.0
New LineCode.CND_B20_303_1F nphases=1 basefreq=60 units=km r1=0.82980 x1=0.48000 r0=2.48940 x0=1.68000 normamps=89.0 emergamps=89.0
New LineCode.CND_B20_303_2F nphases=2 basefreq=60 units=km r1=0.82980 x1=0.48000 r0=2.48940 x0=1.68000 normamps=89.0 emergamps=89.0
New LineCode.CND_B20_303_3F nphases=3 basefreq=60 units=km r1=0.82980 x1=0.48000 r0=2.48940 x0=1.68000 normamps=89.0 emergamps=89.0
New LineCode.CND_B30_162_1F nphases=1 basefreq=60 units=km r1=0.60420 x1=0.45130 r0=1.81260 x0=1.57955 normamps=235.0 emergamps=235.0
New LineCode.CND_B30_162_2F nphases=2 basefreq=60 units=km r1=0.60420 x1=0.45130 r0=1.81260 x0=1.57955 normamps=235.0 emergamps=235.0
New LineCode.CND_B30_162_3F nphases=3 basefreq=60 units=km r1=0.60420 x1=0.45130 r0=1.81260 x0=1.57955 normamps=235.0 emergamps=235.0
New LineCode.CND_B10_200_1F nphases=1 basefreq=60 units=km r1=1.28360 x1=0.50000 r0=3.85080 x0=1.75000 normamps=130.0 emergamps=130.0
New LineCode.CND_B10_200_2F nphases=2 basefreq=60 units=km r1=1.28360 x1=0.50000 r0=3.85080 x0=1.75000 normamps=130.0 emergamps=130.0
New LineCode.CND_B10_200_3F nphases=3 basefreq=60 units=km r1=1.28360 x1=0.50000 r0=3.85080 x0=1.75000 normamps=130.0 emergamps=130.0
New LineCode.CND_B30_11_1F nphases=1 basefreq=60 units=km r1=1.53010 x1=0.50000 r0=4.59030 x0=1.75000 normamps=130.0 emergamps=130.0
New LineCode.CND_B30_11_2F nphases=2 basefreq=60 units=km r1=1.53010 x1=0.50000 r0=4.59030 x0=1.75000 normamps=130.0 emergamps=130.0
New LineCode.CND_B30_11_3F nphases=3 basefreq=60 units=km r1=1.53010 x1=0.50000 r0=4.59030 x0=1.75000 normamps=130.0 emergamps=130.0
New LineCode.CND_B20_60_1F nphases=1 basefreq=60 units=km r1=0.96310 x1=0.47000 r0=2.88930 x0=1.64500 normamps=175.0 emergamps=175.0
New LineCode.CND_B20_60_2F nphases=2 basefreq=60 units=km r1=0.96310 x1=0.47000 r0=2.88930 x0=1.64500 normamps=175.0 emergamps=175.0
New LineCode.CND_B20_60_3F nphases=3 basefreq=60 units=km r1=0.96310 x1=0.47000 r0=2.88930 x0=1.64500 normamps=175.0 emergamps=175.0
New LineCode.CND_B30_255_1F nphases=1 basefreq=60 units=km r1=1.10000 x1=0.30000 r0=3.30000 x0=1.05000 normamps=152.0 emergamps=152.0
New LineCode.CND_B30_255_2F nphases=2 basefreq=60 units=km r1=1.10000 x1=0.30000 r0=3.30000 x0=1.05000 normamps=152.0 emergamps=152.0
New LineCode.CND_B30_255_3F nphases=3 basefreq=60 units=km r1=1.10000 x1=0.30000 r0=3.30000 x0=1.05000 normamps=152.0 emergamps=152.0
New LineCode.CND_B20_12_1F nphases=1 basefreq=60 units=km r1=0.60420 x1=0.45130 r0=1.81260 x0=1.57955 normamps=235.0 emergamps=235.0
New LineCode.CND_B20_12_2F nphases=2 basefreq=60 units=km r1=0.60420 x1=0.45130 r0=1.81260 x0=1.57955 normamps=235.0 emergamps=235.0
New LineCode.CND_B20_12_3F nphases=3 basefreq=60 units=km r1=0.60420 x1=0.45130 r0=1.81260 x0=1.57955 normamps=235.0 emergamps=235.0
New LineCode.CND_B20_96_1F nphases=1 basefreq=60 units=km r1=0.60420 x1=0.45130 r0=1.81260 x0=1.57955 normamps=235.0 emergamps=235.0
New LineCode.CND_B20_96_2F nphases=2 basefreq=60 units=km r1=0.60420 x1=0.45130 r0=1.81260 x0=1.57955 normamps=235.0 emergamps=235.0
New LineCode.CND_B20_96_3F nphases=3 basefreq=60 units=km r1=0.60420 x1=0.45130 r0=1.81260 x0=1.57955 normamps=235.0 emergamps=235.0
New LineCode.CND_B20_93_1F nphases=1 basefreq=60 units=km r1=1.53010 x1=0.50000 r0=4.59030 x0=1.75000 normamps=130.0 emergamps=130.0
New LineCode.CND_B20_93_2F nphases=2 basefreq=60 units=km r1=1.53010 x1=0.50000 r0=4.59030 x0=1.75000 normamps=130.0 emergamps=130.0
New LineCode.CND_B20_93_3F nphases=3 basefreq=60 units=km r1=1.53010 x1=0.50000 r0=4.59030 x0=1.75000 normamps=130.0 emergamps=130.0
New LineCode.CND_B30_9_1F nphases=1 basefreq=60 units=km r1=0.59910 x1=0.47000 r0=1.79730 x0=1.64500 normamps=90.0 emergamps=90.0
New LineCode.CND_B30_9_2F nphases=2 basefreq=60 units=km r1=0.59910 x1=0.47000 r0=1.79730 x0=1.64500 normamps=90.0 emergamps=90.0
New LineCode.CND_B30_9_3F nphases=3 basefreq=60 units=km r1=0.59910 x1=0.47000 r0=1.79730 x0=1.64500 normamps=90.0 emergamps=90.0
New LineCode.CND_B30_98_1F nphases=1 basefreq=60 units=km r1=0.47910 x1=0.44240 r0=1.43730 x0=1.54840 normamps=270.0 emergamps=270.0
New LineCode.CND_B30_98_2F nphases=2 basefreq=60 units=km r1=0.47910 x1=0.44240 r0=1.43730 x0=1.54840 normamps=270.0 emergamps=270.0
New LineCode.CND_B30_98_3F nphases=3 basefreq=60 units=km r1=0.47910 x1=0.44240 r0=1.43730 x0=1.54840 normamps=270.0 emergamps=270.0
New LineCode.CND_B20_14_1F nphases=1 basefreq=60 units=km r1=0.47910 x1=0.44240 r0=1.43730 x0=1.54840 normamps=270.0 emergamps=270.0
New LineCode.CND_B20_14_2F nphases=2 basefreq=60 units=km r1=0.47910 x1=0.44240 r0=1.43730 x0=1.54840 normamps=270.0 emergamps=270.0
New LineCode.CND_B20_14_3F nphases=3 basefreq=60 units=km r1=0.47910 x1=0.44240 r0=1.43730 x0=1.54840 normamps=270.0 emergamps=270.0
New LineCode.CND_B30_199_1F nphases=1 basefreq=60 units=km r1=1.48510 x1=0.51000 r0=4.45530 x0=1.78500 normamps=97.0 emergamps=97.0
New LineCode.CND_B30_199_2F nphases=2 basefreq=60 units=km r1=1.48510 x1=0.51000 r0=4.45530 x0=1.78500 normamps=97.0 emergamps=97.0
New LineCode.CND_B30_199_3F nphases=3 basefreq=60 units=km r1=1.48510 x1=0.51000 r0=4.45530 x0=1.78500 normamps=97.0 emergamps=97.0
New LineCode.CND_B20_200055_1F nphases=1 basefreq=60 units=km r1=1.10000 x1=0.30000 r0=3.30000 x0=1.05000 normamps=150.0 emergamps=150.0
New LineCode.CND_B20_200055_2F nphases=2 basefreq=60 units=km r1=1.10000 x1=0.30000 r0=3.30000 x0=1.05000 normamps=150.0 emergamps=150.0
New LineCode.CND_B20_200055_3F nphases=3 basefreq=60 units=km r1=1.10000 x1=0.30000 r0=3.30000 x0=1.05000 normamps=150.0 emergamps=150.0
New LineCode.CND_B30_13_1F nphases=1 basefreq=60 units=km r1=0.60420 x1=0.45130 r0=1.81260 x0=1.57955 normamps=235.0 emergamps=235.0
New LineCode.CND_B30_13_2F nphases=2 basefreq=60 units=km r1=0.60420 x1=0.45130 r0=1.81260 x0=1.57955 normamps=235.0 emergamps=235.0
New LineCode.CND_B30_13_3F nphases=3 basefreq=60 units=km r1=0.60420 x1=0.45130 r0=1.81260 x0=1.57955 normamps=235.0 emergamps=235.0
New LineCode.CND_B30_12_1F nphases=1 basefreq=60 units=km r1=0.60420 x1=0.45130 r0=1.81260 x0=1.57955 normamps=235.0 emergamps=235.0
New LineCode.CND_B30_12_2F nphases=2 basefreq=60 units=km r1=0.60420 x1=0.45130 r0=1.81260 x0=1.57955 normamps=235.0 emergamps=235.0
New LineCode.CND_B30_12_3F nphases=3 basefreq=60 units=km r1=0.60420 x1=0.45130 r0=1.81260 x0=1.57955 normamps=235.0 emergamps=235.0
New LineCode.CND_B30_290_1F nphases=1 basefreq=60 units=km r1=1.10000 x1=0.30000 r0=3.30000 x0=1.05000 normamps=152.0 emergamps=152.0
New LineCode.CND_B30_290_2F nphases=2 basefreq=60 units=km r1=1.10000 x1=0.30000 r0=3.30000 x0=1.05000 normamps=152.0 emergamps=152.0
New LineCode.CND_B30_290_3F nphases=3 basefreq=60 units=km r1=1.10000 x1=0.30000 r0=3.30000 x0=1.05000 normamps=152.0 emergamps=152.0
New LineCode.CND_B20_9_1F nphases=1 basefreq=60 units=km r1=0.59910 x1=0.47000 r0=1.79730 x0=1.64500 normamps=90.0 emergamps=90.0
New LineCode.CND_B20_9_2F nphases=2 basefreq=60 units=km r1=0.59910 x1=0.47000 r0=1.79730 x0=1.64500 normamps=90.0 emergamps=90.0
New LineCode.CND_B20_9_3F nphases=3 basefreq=60 units=km r1=0.59910 x1=0.47000 r0=1.79730 x0=1.64500 normamps=90.0 emergamps=90.0
New LineCode.CND_B20_290_1F nphases=1 basefreq=60 units=km r1=1.10000 x1=0.30000 r0=3.30000 x0=1.05000 normamps=152.0 emergamps=152.0
New LineCode.CND_B20_290_2F nphases=2 basefreq=60 units=km r1=1.10000 x1=0.30000 r0=3.30000 x0=1.05000 normamps=152.0 emergamps=152.0
New LineCode.CND_B20_290_3F nphases=3 basefreq=60 units=km r1=1.10000 x1=0.30000 r0=3.30000 x0=1.05000 normamps=152.0 emergamps=152.0
New LineCode.CND_B20_84_1F nphases=1 basefreq=60 units=km r1=1.53010 x1=0.50000 r0=4.59030 x0=1.75000 normamps=130.0 emergamps=130.0
New LineCode.CND_B20_84_2F nphases=2 basefreq=60 units=km r1=1.53010 x1=0.50000 r0=4.59030 x0=1.75000 normamps=130.0 emergamps=130.0
New LineCode.CND_B20_84_3F nphases=3 basefreq=60 units=km r1=1.53010 x1=0.50000 r0=4.59030 x0=1.75000 normamps=130.0 emergamps=130.0
New LineCode.CND_B30_84_1F nphases=1 basefreq=60 units=km r1=1.53010 x1=0.50000 r0=4.59030 x0=1.75000 normamps=130.0 emergamps=130.0
New LineCode.CND_B30_84_2F nphases=2 basefreq=60 units=km r1=1.53010 x1=0.50000 r0=4.59030 x0=1.75000 normamps=130.0 emergamps=130.0
New LineCode.CND_B30_84_3F nphases=3 basefreq=60 units=km r1=1.53010 x1=0.50000 r0=4.59030 x0=1.75000 normamps=130.0 emergamps=130.0
New LineCode.CND_B30_8_1F nphases=1 basefreq=60 units=km r1=0.59910 x1=0.47000 r0=1.79730 x0=1.64500 normamps=90.0 emergamps=90.0
New LineCode.CND_B30_8_2F nphases=2 basefreq=60 units=km r1=0.59910 x1=0.47000 r0=1.79730 x0=1.64500 normamps=90.0 emergamps=90.0
New LineCode.CND_B30_8_3F nphases=3 basefreq=60 units=km r1=0.59910 x1=0.47000 r0=1.79730 x0=1.64500 normamps=90.0 emergamps=90.0
New LineCode.CND_B10_18_1F nphases=1 basefreq=60 units=km r1=0.30180 x1=0.42490 r0=0.90540 x0=1.48715 normamps=365.0 emergamps=365.0
New LineCode.CND_B10_18_2F nphases=2 basefreq=60 units=km r1=0.30180 x1=0.42490 r0=0.90540 x0=1.48715 normamps=365.0 emergamps=365.0
New LineCode.CND_B10_18_3F nphases=3 basefreq=60 units=km r1=0.30180 x1=0.42490 r0=0.90540 x0=1.48715 normamps=365.0 emergamps=365.0
New LineCode.CND_B30_200041_1F nphases=1 basefreq=60 units=km r1=0.30180 x1=0.42490 r0=0.90540 x0=1.48715 normamps=365.0 emergamps=365.0
New LineCode.CND_B30_200041_2F nphases=2 basefreq=60 units=km r1=0.30180 x1=0.42490 r0=0.90540 x0=1.48715 normamps=365.0 emergamps=365.0
New LineCode.CND_B30_200041_3F nphases=3 basefreq=60 units=km r1=0.30180 x1=0.42490 r0=0.90540 x0=1.48715 normamps=365.0 emergamps=365.0
New LineCode.CND_B30_43_1F nphases=1 basefreq=60 units=km r1=0.96310 x1=0.47000 r0=2.88930 x0=1.64500 normamps=175.0 emergamps=175.0
New LineCode.CND_B30_43_2F nphases=2 basefreq=60 units=km r1=0.96310 x1=0.47000 r0=2.88930 x0=1.64500 normamps=175.0 emergamps=175.0
New LineCode.CND_B30_43_3F nphases=3 basefreq=60 units=km r1=0.96310 x1=0.47000 r0=2.88930 x0=1.64500 normamps=175.0 emergamps=175.0
New LineCode.CND_B10_60_1F nphases=1 basefreq=60 units=km r1=0.96310 x1=0.47000 r0=2.88930 x0=1.64500 normamps=175.0 emergamps=175.0
New LineCode.CND_B10_60_2F nphases=2 basefreq=60 units=km r1=0.96310 x1=0.47000 r0=2.88930 x0=1.64500 normamps=175.0 emergamps=175.0
New LineCode.CND_B10_60_3F nphases=3 basefreq=60 units=km r1=0.96310 x1=0.47000 r0=2.88930 x0=1.64500 normamps=175.0 emergamps=175.0
New LineCode.CND_B10_13_1F nphases=1 basefreq=60 units=km r1=0.60420 x1=0.45130 r0=1.81260 x0=1.57955 normamps=235.0 emergamps=235.0
New LineCode.CND_B10_13_2F nphases=2 basefreq=60 units=km r1=0.60420 x1=0.45130 r0=1.81260 x0=1.57955 normamps=235.0 emergamps=235.0
New LineCode.CND_B10_13_3F nphases=3 basefreq=60 units=km r1=0.60420 x1=0.45130 r0=1.81260 x0=1.57955 normamps=235.0 emergamps=235.0
New LineCode.CND_B10_10_1F nphases=1 basefreq=60 units=km r1=1.53010 x1=0.50000 r0=4.59030 x0=1.75000 normamps=130.0 emergamps=130.0
New LineCode.CND_B10_10_2F nphases=2 basefreq=60 units=km r1=1.53010 x1=0.50000 r0=4.59030 x0=1.75000 normamps=130.0 emergamps=130.0
New LineCode.CND_B10_10_3F nphases=3 basefreq=60 units=km r1=1.53010 x1=0.50000 r0=4.59030 x0=1.75000 normamps=130.0 emergamps=130.0
New LineCode.CND_B10_12_1F nphases=1 basefreq=60 units=km r1=0.60420 x1=0.45130 r0=1.81260 x0=1.57955 normamps=235.0 emergamps=235.0
New LineCode.CND_B10_12_2F nphases=2 basefreq=60 units=km r1=0.60420 x1=0.45130 r0=1.81260 x0=1.57955 normamps=235.0 emergamps=235.0
New LineCode.CND_B10_12_3F nphases=3 basefreq=60 units=km r1=0.60420 x1=0.45130 r0=1.81260 x0=1.57955 normamps=235.0 emergamps=235.0
New LineCode.CND_B30_64_1F nphases=1 basefreq=60 units=km r1=0.93390 x1=0.49040 r0=2.80170 x0=1.71640 normamps=70.0 emergamps=70.0
New LineCode.CND_B30_64_2F nphases=2 basefreq=60 units=km r1=0.93390 x1=0.49040 r0=2.80170 x0=1.71640 normamps=70.0 emergamps=70.0
New LineCode.CND_B30_64_3F nphases=3 basefreq=60 units=km r1=0.93390 x1=0.49040 r0=2.80170 x0=1.71640 normamps=70.0 emergamps=70.0
New LineCode.CND_B10_84_1F nphases=1 basefreq=60 units=km r1=1.53010 x1=0.50000 r0=4.59030 x0=1.75000 normamps=130.0 emergamps=130.0
New LineCode.CND_B10_84_2F nphases=2 basefreq=60 units=km r1=1.53010 x1=0.50000 r0=4.59030 x0=1.75000 normamps=130.0 emergamps=130.0
New LineCode.CND_B10_84_3F nphases=3 basefreq=60 units=km r1=1.53010 x1=0.50000 r0=4.59030 x0=1.75000 normamps=130.0 emergamps=130.0
New LineCode.CND_B20_18_1F nphases=1 basefreq=60 units=km r1=0.30180 x1=0.42490 r0=0.90540 x0=1.48715 normamps=365.0 emergamps=365.0
New LineCode.CND_B20_18_2F nphases=2 basefreq=60 units=km r1=0.30180 x1=0.42490 r0=0.90540 x0=1.48715 normamps=365.0 emergamps=365.0
New LineCode.CND_B20_18_3F nphases=3 basefreq=60 units=km r1=0.30180 x1=0.42490 r0=0.90540 x0=1.48715 normamps=365.0 emergamps=365.0
New LineCode.CND_B30_254_1F nphases=1 basefreq=60 units=km r1=0.59270 x1=0.47000 r0=1.77810 x0=1.64500 normamps=111.0 emergamps=111.0
New LineCode.CND_B30_254_2F nphases=2 basefreq=60 units=km r1=0.59270 x1=0.47000 r0=1.77810 x0=1.64500 normamps=111.0 emergamps=111.0
New LineCode.CND_B30_254_3F nphases=3 basefreq=60 units=km r1=0.59270 x1=0.47000 r0=1.77810 x0=1.64500 normamps=111.0 emergamps=111.0
New LineCode.CND_B10_200055_1F nphases=1 basefreq=60 units=km r1=1.10000 x1=0.30000 r0=3.30000 x0=1.05000 normamps=150.0 emergamps=150.0
New LineCode.CND_B10_200055_2F nphases=2 basefreq=60 units=km r1=1.10000 x1=0.30000 r0=3.30000 x0=1.05000 normamps=150.0 emergamps=150.0
New LineCode.CND_B10_200055_3F nphases=3 basefreq=60 units=km r1=1.10000 x1=0.30000 r0=3.30000 x0=1.05000 normamps=150.0 emergamps=150.0
New LineCode.CND_B20_200_1F nphases=1 basefreq=60 units=km r1=1.28360 x1=0.50000 r0=3.85080 x0=1.75000 normamps=130.0 emergamps=130.0
New LineCode.CND_B20_200_2F nphases=2 basefreq=60 units=km r1=1.28360 x1=0.50000 r0=3.85080 x0=1.75000 normamps=130.0 emergamps=130.0
New LineCode.CND_B20_200_3F nphases=3 basefreq=60 units=km r1=1.28360 x1=0.50000 r0=3.85080 x0=1.75000 normamps=130.0 emergamps=130.0
New LineCode.CND_B30_59_1F nphases=1 basefreq=60 units=km r1=1.53010 x1=0.50000 r0=4.59030 x0=1.75000 normamps=130.0 emergamps=130.0
New LineCode.CND_B30_59_2F nphases=2 basefreq=60 units=km r1=1.53010 x1=0.50000 r0=4.59030 x0=1.75000 normamps=130.0 emergamps=130.0
New LineCode.CND_B30_59_3F nphases=3 basefreq=60 units=km r1=1.53010 x1=0.50000 r0=4.59030 x0=1.75000 normamps=130.0 emergamps=130.0
New LineCode.CND_B30_326_1F nphases=1 basefreq=60 units=km r1=0.82980 x1=0.48000 r0=2.48940 x0=1.68000 normamps=89.0 emergamps=89.0
New LineCode.CND_B30_326_2F nphases=2 basefreq=60 units=km r1=0.82980 x1=0.48000 r0=2.48940 x0=1.68000 normamps=89.0 emergamps=89.0
New LineCode.CND_B30_326_3F nphases=3 basefreq=60 units=km r1=0.82980 x1=0.48000 r0=2.48940 x0=1.68000 normamps=89.0 emergamps=89.0
New LineCode.CND_B30_60_1F nphases=1 basefreq=60 units=km r1=0.96310 x1=0.47000 r0=2.88930 x0=1.64500 normamps=175.0 emergamps=175.0
New LineCode.CND_B30_60_2F nphases=2 basefreq=60 units=km r1=0.96310 x1=0.47000 r0=2.88930 x0=1.64500 normamps=175.0 emergamps=175.0
New LineCode.CND_B30_60_3F nphases=3 basefreq=60 units=km r1=0.96310 x1=0.47000 r0=2.88930 x0=1.64500 normamps=175.0 emergamps=175.0
New LineCode.CND_B20_13_1F nphases=1 basefreq=60 units=km r1=0.60420 x1=0.45130 r0=1.81260 x0=1.57955 normamps=235.0 emergamps=235.0
New LineCode.CND_B20_13_2F nphases=2 basefreq=60 units=km r1=0.60420 x1=0.45130 r0=1.81260 x0=1.57955 normamps=235.0 emergamps=235.0
New LineCode.CND_B20_13_3F nphases=3 basefreq=60 units=km r1=0.60420 x1=0.45130 r0=1.81260 x0=1.57955 normamps=235.0 emergamps=235.0
New LineCode.CND_B30_200055_1F nphases=1 basefreq=60 units=km r1=1.10000 x1=0.30000 r0=3.30000 x0=1.05000 normamps=150.0 emergamps=150.0
New LineCode.CND_B30_200055_2F nphases=2 basefreq=60 units=km r1=1.10000 x1=0.30000 r0=3.30000 x0=1.05000 normamps=150.0 emergamps=150.0
New LineCode.CND_B30_200055_3F nphases=3 basefreq=60 units=km r1=1.10000 x1=0.30000 r0=3.30000 x0=1.05000 normamps=150.0 emergamps=150.0
New LineCode.CND_B20_200042_1F nphases=1 basefreq=60 units=km r1=0.30180 x1=0.42490 r0=0.90540 x0=1.48715 normamps=365.0 emergamps=365.0
New LineCode.CND_B20_200042_2F nphases=2 basefreq=60 units=km r1=0.30180 x1=0.42490 r0=0.90540 x0=1.48715 normamps=365.0 emergamps=365.0
New LineCode.CND_B20_200042_3F nphases=3 basefreq=60 units=km r1=0.30180 x1=0.42490 r0=0.90540 x0=1.48715 normamps=365.0 emergamps=365.0
New LineCode.CND_B30_10_1F nphases=1 basefreq=60 units=km r1=1.53010 x1=0.50000 r0=4.59030 x0=1.75000 normamps=130.0 emergamps=130.0
New LineCode.CND_B30_10_2F nphases=2 basefreq=60 units=km r1=1.53010 x1=0.50000 r0=4.59030 x0=1.75000 normamps=130.0 emergamps=130.0
New LineCode.CND_B30_10_3F nphases=3 basefreq=60 units=km r1=1.53010 x1=0.50000 r0=4.59030 x0=1.75000 normamps=130.0 emergamps=130.0
New LineCode.CND_B20_10_1F nphases=1 basefreq=60 units=km r1=1.53010 x1=0.50000 r0=4.59030 x0=1.75000 normamps=130.0 emergamps=130.0
New LineCode.CND_B20_10_2F nphases=2 basefreq=60 units=km r1=1.53010 x1=0.50000 r0=4.59030 x0=1.75000 normamps=130.0 emergamps=130.0
New LineCode.CND_B20_10_3F nphases=3 basefreq=60 units=km r1=1.53010 x1=0.50000 r0=4.59030 x0=1.75000 normamps=130.0 emergamps=130.0
New LineCode.CND_B10_241_1F nphases=1 basefreq=60 units=km r1=1.48510 x1=0.51000 r0=4.45530 x0=1.78500 normamps=97.0 emergamps=97.0
New LineCode.CND_B10_241_2F nphases=2 basefreq=60 units=km r1=1.48510 x1=0.51000 r0=4.45530 x0=1.78500 normamps=97.0 emergamps=97.0
New LineCode.CND_B10_241_3F nphases=3 basefreq=60 units=km r1=1.48510 x1=0.51000 r0=4.45530 x0=1.78500 normamps=97.0 emergamps=97.0
New LineCode.CND_B30_252_1F nphases=1 basefreq=60 units=km r1=0.29640 x1=0.44000 r0=0.88920 x0=1.54000 normamps=171.0 emergamps=171.0
New LineCode.CND_B30_252_2F nphases=2 basefreq=60 units=km r1=0.29640 x1=0.44000 r0=0.88920 x0=1.54000 normamps=171.0 emergamps=171.0
New LineCode.CND_B30_252_3F nphases=3 basefreq=60 units=km r1=0.29640 x1=0.44000 r0=0.88920 x0=1.54000 normamps=171.0 emergamps=171.0
New LineCode.CND_B10_64_1F nphases=1 basefreq=60 units=km r1=0.93390 x1=0.49040 r0=2.80170 x0=1.71640 normamps=70.0 emergamps=70.0
New LineCode.CND_B10_64_2F nphases=2 basefreq=60 units=km r1=0.93390 x1=0.49040 r0=2.80170 x0=1.71640 normamps=70.0 emergamps=70.0
New LineCode.CND_B10_64_3F nphases=3 basefreq=60 units=km r1=0.93390 x1=0.49040 r0=2.80170 x0=1.71640 normamps=70.0 emergamps=70.0
New LineCode.CND_B20_200041_1F nphases=1 basefreq=60 units=km r1=0.30180 x1=0.42490 r0=0.90540 x0=1.48715 normamps=365.0 emergamps=365.0
New LineCode.CND_B20_200041_2F nphases=2 basefreq=60 units=km r1=0.30180 x1=0.42490 r0=0.90540 x0=1.48715 normamps=365.0 emergamps=365.0
New LineCode.CND_B20_200041_3F nphases=3 basefreq=60 units=km r1=0.30180 x1=0.42490 r0=0.90540 x0=1.48715 normamps=365.0 emergamps=365.0
New LineCode.CND_B10_290_1F nphases=1 basefreq=60 units=km r1=1.10000 x1=0.30000 r0=3.30000 x0=1.05000 normamps=152.0 emergamps=152.0
New LineCode.CND_B10_290_2F nphases=2 basefreq=60 units=km r1=1.10000 x1=0.30000 r0=3.30000 x0=1.05000 normamps=152.0 emergamps=152.0
New LineCode.CND_B10_290_3F nphases=3 basefreq=60 units=km r1=1.10000 x1=0.30000 r0=3.30000 x0=1.05000 normamps=152.0 emergamps=152.0
New LineCode.CND_B20_94_1F nphases=1 basefreq=60 units=km r1=0.60420 x1=0.45130 r0=1.81260 x0=1.57955 normamps=235.0 emergamps=235.0
New LineCode.CND_B20_94_2F nphases=2 basefreq=60 units=km r1=0.60420 x1=0.45130 r0=1.81260 x0=1.57955 normamps=235.0 emergamps=235.0
New LineCode.CND_B20_94_3F nphases=3 basefreq=60 units=km r1=0.60420 x1=0.45130 r0=1.81260 x0=1.57955 normamps=235.0 emergamps=235.0
New LineCode.CND_B10_200041_1F nphases=1 basefreq=60 units=km r1=0.30180 x1=0.42490 r0=0.90540 x0=1.48715 normamps=365.0 emergamps=365.0
New LineCode.CND_B10_200041_2F nphases=2 basefreq=60 units=km r1=0.30180 x1=0.42490 r0=0.90540 x0=1.48715 normamps=365.0 emergamps=365.0
New LineCode.CND_B10_200041_3F nphases=3 basefreq=60 units=km r1=0.30180 x1=0.42490 r0=0.90540 x0=1.48715 normamps=365.0 emergamps=365.0
New LineCode.CND_B30_71_1F nphases=1 basefreq=60 units=km r1=1.53010 x1=0.50000 r0=4.59030 x0=1.75000 normamps=130.0 emergamps=130.0
New LineCode.CND_B30_71_2F nphases=2 basefreq=60 units=km r1=1.53010 x1=0.50000 r0=4.59030 x0=1.75000 normamps=130.0 emergamps=130.0
New LineCode.CND_B30_71_3F nphases=3 basefreq=60 units=km r1=1.53010 x1=0.50000 r0=4.59030 x0=1.75000 normamps=130.0 emergamps=130.0
New LineCode.CND_B20_241_1F nphases=1 basefreq=60 units=km r1=1.48510 x1=0.51000 r0=4.45530 x0=1.78500 normamps=97.0 emergamps=97.0
New LineCode.CND_B20_241_2F nphases=2 basefreq=60 units=km r1=1.48510 x1=0.51000 r0=4.45530 x0=1.78500 normamps=97.0 emergamps=97.0
New LineCode.CND_B20_241_3F nphases=3 basefreq=60 units=km r1=1.48510 x1=0.51000 r0=4.45530 x0=1.78500 normamps=97.0 emergamps=97.0
New LineCode.CND_B30_200_1F nphases=1 basefreq=60 units=km r1=1.28360 x1=0.50000 r0=3.85080 x0=1.75000 normamps=130.0 emergamps=130.0
New LineCode.CND_B30_200_2F nphases=2 basefreq=60 units=km r1=1.28360 x1=0.50000 r0=3.85080 x0=1.75000 normamps=130.0 emergamps=130.0
New LineCode.CND_B30_200_3F nphases=3 basefreq=60 units=km r1=1.28360 x1=0.50000 r0=3.85080 x0=1.75000 normamps=130.0 emergamps=130.0
New LineCode.CND_B20_61_1F nphases=1 basefreq=60 units=km r1=0.60420 x1=0.45130 r0=1.81260 x0=1.57955 normamps=235.0 emergamps=235.0
New LineCode.CND_B20_61_2F nphases=2 basefreq=60 units=km r1=0.60420 x1=0.45130 r0=1.81260 x0=1.57955 normamps=235.0 emergamps=235.0
New LineCode.CND_B20_61_3F nphases=3 basefreq=60 units=km r1=0.60420 x1=0.45130 r0=1.81260 x0=1.57955 normamps=235.0 emergamps=235.0
New LineCode.CND_B30_93_1F nphases=1 basefreq=60 units=km r1=1.53010 x1=0.50000 r0=4.59030 x0=1.75000 normamps=130.0 emergamps=130.0
New LineCode.CND_B30_93_2F nphases=2 basefreq=60 units=km r1=1.53010 x1=0.50000 r0=4.59030 x0=1.75000 normamps=130.0 emergamps=130.0
New LineCode.CND_B30_93_3F nphases=3 basefreq=60 units=km r1=1.53010 x1=0.50000 r0=4.59030 x0=1.75000 normamps=130.0 emergamps=130.0
New LineCode.CND_B20_11_1F nphases=1 basefreq=60 units=km r1=1.53010 x1=0.50000 r0=4.59030 x0=1.75000 normamps=130.0 emergamps=130.0
New LineCode.CND_B20_11_2F nphases=2 basefreq=60 units=km r1=1.53010 x1=0.50000 r0=4.59030 x0=1.75000 normamps=130.0 emergamps=130.0
New LineCode.CND_B20_11_3F nphases=3 basefreq=60 units=km r1=1.53010 x1=0.50000 r0=4.59030 x0=1.75000 normamps=130.0 emergamps=130.0
New LineCode.CND_B20_43_1F nphases=1 basefreq=60 units=km r1=0.96310 x1=0.47000 r0=2.88930 x0=1.64500 normamps=175.0 emergamps=175.0
New LineCode.CND_B20_43_2F nphases=2 basefreq=60 units=km r1=0.96310 x1=0.47000 r0=2.88930 x0=1.64500 normamps=175.0 emergamps=175.0
New LineCode.CND_B20_43_3F nphases=3 basefreq=60 units=km r1=0.96310 x1=0.47000 r0=2.88930 x0=1.64500 normamps=175.0 emergamps=175.0
New LineCode.CND_B10_11_1F nphases=1 basefreq=60 units=km r1=1.53010 x1=0.50000 r0=4.59030 x0=1.75000 normamps=130.0 emergamps=130.0
New LineCode.CND_B10_11_2F nphases=2 basefreq=60 units=km r1=1.53010 x1=0.50000 r0=4.59030 x0=1.75000 normamps=130.0 emergamps=130.0
New LineCode.CND_B10_11_3F nphases=3 basefreq=60 units=km r1=1.53010 x1=0.50000 r0=4.59030 x0=1.75000 normamps=130.0 emergamps=130.0
New LineCode.CND_B10_61_1F nphases=1 basefreq=60 units=km r1=0.60420 x1=0.45130 r0=1.81260 x0=1.57955 normamps=235.0 emergamps=235.0
New LineCode.CND_B10_61_2F nphases=2 basefreq=60 units=km r1=0.60420 x1=0.45130 r0=1.81260 x0=1.57955 normamps=235.0 emergamps=235.0
New LineCode.CND_B10_61_3F nphases=3 basefreq=60 units=km r1=0.60420 x1=0.45130 r0=1.81260 x0=1.57955 normamps=235.0 emergamps=235.0
New LineCode.CND_B10_255_1F nphases=1 basefreq=60 units=km r1=1.10000 x1=0.30000 r0=3.30000 x0=1.05000 normamps=152.0 emergamps=152.0
New LineCode.CND_B10_255_2F nphases=2 basefreq=60 units=km r1=1.10000 x1=0.30000 r0=3.30000 x0=1.05000 normamps=152.0 emergamps=152.0
New LineCode.CND_B10_255_3F nphases=3 basefreq=60 units=km r1=1.10000 x1=0.30000 r0=3.30000 x0=1.05000 normamps=152.0 emergamps=152.0
New LineCode.CND_B30_14_1F nphases=1 basefreq=60 units=km r1=0.47910 x1=0.44240 r0=1.43730 x0=1.54840 normamps=270.0 emergamps=270.0
New LineCode.CND_B30_14_2F nphases=2 basefreq=60 units=km r1=0.47910 x1=0.44240 r0=1.43730 x0=1.54840 normamps=270.0 emergamps=270.0
New LineCode.CND_B30_14_3F nphases=3 basefreq=60 units=km r1=0.47910 x1=0.44240 r0=1.43730 x0=1.54840 normamps=270.0 emergamps=270.0
New LineCode.CND_B30_100_1F nphases=1 basefreq=60 units=km r1=0.96310 x1=0.47000 r0=2.88930 x0=1.64500 normamps=175.0 emergamps=175.0
New LineCode.CND_B30_100_2F nphases=2 basefreq=60 units=km r1=0.96310 x1=0.47000 r0=2.88930 x0=1.64500 normamps=175.0 emergamps=175.0
New LineCode.CND_B30_100_3F nphases=3 basefreq=60 units=km r1=0.96310 x1=0.47000 r0=2.88930 x0=1.64500 normamps=175.0 emergamps=175.0
New LineCode.CND_B20_198_1F nphases=1 basefreq=60 units=km r1=0.82980 x1=0.48000 r0=2.48940 x0=1.68000 normamps=89.0 emergamps=89.0
New LineCode.CND_B20_198_2F nphases=2 basefreq=60 units=km r1=0.82980 x1=0.48000 r0=2.48940 x0=1.68000 normamps=89.0 emergamps=89.0
...

! condutor generico para trechos sem TIP_CND na base
New LineCode.CND_GENERICO_1F nphases=1 basefreq=60 units=km r1=0.40000 x1=0.40000 r0=1.20000 x0=1.40000 normamps=200.0 emergamps=240.0
New LineCode.CND_GENERICO_2F nphases=2 basefreq=60 units=km r1=0.40000 x1=0.40000 r0=1.20000 x0=1.40000 normamps=200.0 emergamps=240.0
New LineCode.CND_GENERICO_3F nphases=3 basefreq=60 units=km r1=0.40000 x1=0.40000 r0=1.20000 x0=1.40000 normamps=200.0 emergamps=240.0
New LineCode.CND_IDEAL_1F nphases=1 basefreq=60 units=km r1=0.00010 x1=0.00010 r0=0.00010 x0=0.00010 normamps=9999 emergamps=9999
New LineCode.CND_IDEAL_2F nphases=2 basefreq=60 units=km r1=0.00010 x1=0.00010 r0=0.00010 x0=0.00010 normamps=9999 emergamps=9999
New LineCode.CND_IDEAL_3F nphases=3 basefreq=60 units=km r1=0.00010 x1=0.00010 r0=0.00010 x0=0.00010 normamps=9999 emergamps=9999
