AMOSTRA/_AT/Chaves_AT.dss
! ==========================================================
! CHAVES E DISJUNTORES DE AT — UNSEAT
! P_N_OPE = A -> normalmente aberta (comando Open no fim)
! ==========================================================
New Line.ATSW_PA-OE-SE-MAL-TRM-DISJ-13E1 phases=3 Bus1=mal_490000570.1.2.3 Bus2=mal_03e1.1.2.3 Switch=y r1=1e-4 r0=1e-4 x1=0 x0=0 c1=0 c0=0
New Line.ATSW_PA-OE-SE-MAL-TRM-DISJ-13T2 phases=3 Bus1=mol_490000570.1.2.3 Bus2=mol_03t2.1.2.3 Switch=y r1=1e-4 r0=1e-4 x1=0 x0=0 c1=0 c0=0
New Line.ATSW_PA-OE-SE-CSO-TRM-DISJ-23452-4 phases=3 Bus1=cso_490000119.1.2.3 Bus2=cso_490000120.1.2.3 Switch=y r1=1e-4 r0=1e-4 x1=0 x0=0 c1=0 c0=0
New Line.ATSW_PA-OE-SE-CSO-TRM-DISJ-23452-2 phases=3 Bus1=cso_490000119.1.2.3 Bus2=cso_uhe_curua_buriti.1.2.3 Switch=y r1=1e-4 r0=1e-4 x1=0 x0=0 c1=0 c0=0
New Line.ATSW_PA-OE-SE-MAL-TRM-DISJ-13L1 phases=3 Bus1=mol_490000570.1.2.3 Bus2=mol_03l1.1.2.3 Switch=y r1=1e-4 r0=1e-4 x1=0 x0=0 c1=0 c0=0
New Line.ATSW_PA-ND-SE-TAI-TRM-DISJ-13L2 phases=3 Bus1=tai_490000588.1.2.3 Bus2=tai_03l2.1.2.3 Switch=y r1=1e-4 r0=1e-4 x1=0 x0=0 c1=0 c0=0
New Line.ATSW_PA-OE-SE-CSO-TRM-DISJ-23452-3 phases=3 Bus1=cso_490000119.1.2.3 Bus2=cso_lt_cso_nop_1.1.2.3 Switch=y r1=1e-4 r0=1e-4 x1=0 x0=0 c1=0 c0=0
New Line.ATSW_PA-OE-SE-MAL-TRM-DISJ-13T1 phases=3 Bus1=mol_490000570.1.2.3 Bus2=mol_03t1.1.2.3 Switch=y r1=1e-4 r0=1e-4 x1=0 x0=0 c1=0 c0=0
New Line.ATSW_PA-ND-SE-ABA-TRM-DISJ-12V2 phases=3 Bus1=aba_490000531.1.2.3 Bus2=aba_02v2.1.2.3 Switch=y r1=1e-4 r0=1e-4 x1=0 x0=0 c1=0 c0=0
New Line.ATSW_PA-ND-SE-ABA-TRM-DISJ-3352-1 phases=3 Bus1=aba_490000531.1.2.3 Bus2=aba_490000532.1.2.3 Switch=y r1=1e-4 r0=1e-4 x1=0 x0=0 c1=0 c0=0
New Line.ATSW_PA-SL-SE-RIM-TRM-DISJ-13T1 phases=3 Bus1=rim_490000072.1.2.3 Bus2=rim_490000095.1.2.3 Switch=y r1=1e-4 r0=1e-4 x1=0 x0=0 c1=0 c0=0
New Line.ATSW_PA-SL-SE-RIM-TRM-DISJ-13T2 phases=3 Bus1=rim_490000072.1.2.3 Bus2=rim_490000096.1.2.3 Switch=y r1=1e-4 r0=1e-4 x1=0 x0=0 c1=0 c0=0
New Line.ATSW_PA-SL-SE-GOI-TRM-DISJ-6252-1 phases=3 Bus1=goi_490000089.1.2.3 Bus2=goi_li_goi_tuc_1.1.2.3 Switch=y r1=1e-4 r0=1e-4 x1=0 x0=0 c1=0 c0=0
New Line.ATSW_PA-ND-SE-TAI-TRM-DISJ-6052-3 phases=3 Bus1=tai_490000346.1.2.3 Bus2=tai_490000347.1.2.3 Switch=y r1=1e-4 r0=1e-4 x1=0 x0=0 c1=0 c0=0
New Line.ATSW_PA-ND-SE-ABA-TRM-DISJ-12T3 phases=3 Bus1=aba_490000531.1.2.3 Bus2=aba_02v2.1.2.3 Switch=y r1=1e-4 r0=1e-4 x1=0 x0=0 c1=0 c0=0
New Line.ATSW_PA-ND-SE-ABA-TRM-DISJ-12T1 phases=3 Bus1=aba_490000531.1.2.3 Bus2=aba_02v2.1.2.3 Switch=y r1=1e-4 r0=1e-4 x1=0 x0=0 c1=0 c0=0
New Line.ATSW_PA-ND-SE-CAP-TRM-DISJ-1252-1 phases=3 Bus1=cap_490000177.1.2.3 Bus2=cap_490000178.1.2.3 Switch=y r1=1e-4 r0=1e-4 x1=0 x0=0 c1=0 c0=0
New Line.ATSW_PA-ND-SE-CAP-TRM-DISJ-1252-12 phases=3 Bus1=cap_490000175.1.2.3 Bus2=cap_490000176.1.2.3 Switch=y r1=1e-4 r0=1e-4 x1=0 x0=0 c1=0 c0=0
New Line.ATSW_PA-ND-SE-CAP-TRM-DISJ-1252-4 phases=3 Bus1=cap_490000177.1.2.3 Bus2=cap_490000178.1.2.3 Switch=y r1=1e-4 r0=1e-4 x1=0 x0=0 c1=0 c0=0
New Line.ATSW_PA-ND-SE-CAP-TRM-DISJ-19T4 phases=3 Bus1=cap_490000175.1.2.3 Bus2=cap_490000176.1.2.3 Switch=y r1=1e-4 r0=1e-4 x1=0 x0=0 c1=0 c0=0
New Line.ATSW_PA-ND-SE-CAP-TRM-DISJ-1252-16 phases=3 Bus1=cap_490000177.1.2.3 Bus2=cap_490000178.1.2.3 Switch=y r1=1e-4 r0=1e-4 x1=0 x0=0 c1=0 c0=0
New Line.ATSW_PA-ND-SE-CAP-TRM-DISJ-13T4 phases=3 Bus1=cap_490000175.1.2.3 Bus2=cap_490000176.1.2.3 Switch=y r1=1e-4 r0=1e-4 x1=0 x0=0 c1=0 c0=0
New Line.ATSW_PA-ND-SE-CAP-TRM-DISJ-1252-2 phases=3 Bus1=cap_490000177.1.2.3 Bus2=cap_490000178.1.2.3 Switch=y r1=1e-4 r0=1e-4 x1=0 x0=0 c1=0 c0=0
New Line.ATSW_PA-ND-SE-CAP-TRM-DISJ-1252-3 phases=3 Bus1=cap_490000177.1.2.3 Bus2=cap_490000178.1.2.3 Switch=y r1=1e-4 r0=1e-4 x1=0 x0=0 c1=0 c0=0
New Line.ATSW_PA-ND-SE-CAP-TRM-DISJ-1252-5 phases=3 Bus1=cap_490000177.1.2.3 Bus2=cap_490000178.1.2.3 Switch=y r1=1e-4 r0=1e-4 x1=0 x0=0 c1=0 c0=0
New Line.ATSW_PA-ND-SE-CAP-TRM-DISJ-11C8 phases=3 Bus1=cap_490000175.1.2.3 Bus2=cap_490000176.1.2.3 Switch=y r1=1e-4 r0=1e-4 x1=0 x0=0 c1=0 c0=0
New Line.ATSW_PA-ND-SE-CAP-TRM-DISJ-1252-14 phases=3 Bus1=cap_490000175.1.2.3 Bus2=cap_490000176.1.2.3 Switch=y r1=1e-4 r0=1e-4 x1=0 x0=0 c1=0 c0=0
New Line.ATSW_PA-SL-SE-RIM-TRM-CSTP-33L1-4 phases=3 Bus1=rim_490000072.1.2.3 Bus2=rim_490000096.1.2.3 Switch=y r1=1e-4 r0=1e-4 x1=0 x0=0 c1=0 c0=0
New Line.ATSW_PA-ND-SE-TAI-TRM-CSTP-33L2-4 phases=3 Bus1=tai_490000346.1.2.3 Bus2=tai_490000347.1.2.3 Switch=y r1=1e-4 r0=1e-4 x1=0 x0=0 c1=0 c0=0
New Line.ATSW_PA-OE-SE-CSO-TRM-CSTP-23429-20 phases=3 Bus1=cso_490000119.1.2.3 Bus2=cso_490000121.1.2.3 Switch=y r1=1e-4 r0=1e-4 x1=0 x0=0 c1=0 c0=0
New Line.ATSW_PA-OE-SE-MAL-TRM-CSTP-33T2-6 phases=3 Bus1=mol_490000570.1.2.3 Bus2=mol_490000572.1.2.3 Switch=y r1=1e-4 r0=1e-4 x1=0 x0=0 c1=0 c0=0
New Line.ATSW_PA-ND-SE-TAI-TRM-DISJ-6052-4 phases=3 Bus1=tai_lt_moj_tai.1.2.3 Bus2=tai_490000588.1.2.3 Switch=y r1=1e-4 r0=1e-4 x1=0 x0=0 c1=0 c0=0
New Line.ATSW_PA-OE-SE-CSO-TRM-CSTP-23429-12 phases=3 Bus1=cso_490000119.1.2.3 Bus2=cso_490000120.1.2.3 Switch=y r1=1e-4 r0=1e-4 x1=0 x0=0 c1=0 c0=0
New Line.ATSW_PA-SL-SE-TUM-TRM-CSTP-7429-14 phases=3 Bus1=tum_490000076.1.2.3 Bus2=tum_re.1.2.3 Switch=y r1=1e-4 r0=1e-4 x1=0 x0=0 c1=0 c0=0
New Line.ATSW_PA-OE-SE-MAL-TRM-CSTP-33L1-7 phases=3 Bus1=mol_490000570.1.2.3 Bus2=mol_lt_alenquer.1.2.3 Switch=y r1=1e-4 r0=1e-4 x1=0 x0=0 c1=0 c0=0
New Line.ATSW_PA-OE-SE-MAL-TRM-CSTP-33L1-5 phases=3 Bus1=mol_490000570.1.2.3 Bus2=mol_lt_alenquer.1.2.3 Switch=y r1=1e-4 r0=1e-4 x1=0 x0=0 c1=0 c0=0
New Line.ATSW_PA-OE-SE-MAL-TRM-CSTP-33T1-5 phases=3 Bus1=mol_490000570.1.2.3 Bus2=mol_490000572.1.2.3 Switch=y r1=1e-4 r0=1e-4 x1=0 x0=0 c1=0 c0=0
New Line.ATSW_PA-SL-SE-TUM-TRM-DISJ-7452-2 phases=3 Bus1=tum_490000076.1.2.3 Bus2=tum_lt_tcm_sfx.1.2.3 Switch=y r1=1e-4 r0=1e-4 x1=0 x0=0 c1=0 c0=0
New Line.ATSW_PA-OE-SE-MAL-TRM-CSTP-33T2-4 phases=3 Bus1=mol_490000570.1.2.3 Bus2=mol_490000572.1.2.3 Switch=y r1=1e-4 r0=1e-4 x1=0 x0=0 c1=0 c0=0
New Line.ATSW_PA-SL-SE-TUM-TRM-CSTP-7429-20 phases=3 Bus1=tum_490000076.1.2.3 Bus2=tum_490000105.1.2.3 Switch=y r1=1e-4 r0=1e-4 x1=0 x0=0 c1=0 c0=0
New Line.ATSW_PA-ND-SE-TAI-TRM-CSTP-6029-1/20 phases=3 Bus1=tai_490000346.1.2.3 Bus2=tai_490000347.1.2.3 Switch=y r1=1e-4 r0=1e-4 x1=0 x0=0 c1=0 c0=0
New Line.ATSW_PA-OE-SE-MAL-TRM-CSTP-33T1-4 phases=3 Bus1=mol_490000570.1.2.3 Bus2=mol-490000571.1.2.3 Switch=y r1=1e-4 r0=1e-4 x1=0 x0=0 c1=0 c0=0
New Line.ATSW_PA-SL-SE-TUM-TRM-CSTP-7429-8 phases=3 Bus1=tum_490000076.1.2.3 Bus2=tcm_lt-tcm-sfx.1.2.3 Switch=y r1=1e-4 r0=1e-4 x1=0 x0=0 c1=0 c0=0
New Line.ATSW_PA-SL-SE-GOI-TRM-CSTP-6229-4 phases=3 Bus1=goi_490000089.1.2.3 Bus2=goi_li_goi_tuc_1.1.2.3 Switch=y r1=1e-4 r0=1e-4 x1=0 x0=0 c1=0 c0=0
New Line.ATSW_PA-SL-SE-RIM-TRM-CSTP-33T1-6 phases=3 Bus1=rim_490000072.1.2.3 Bus2=rim_490000096.1.2.3 Switch=y r1=1e-4 r0=1e-4 x1=0 x0=0 c1=0 c0=0
New Line.ATSW_PA-SL-SE-RIM-TRM-CSTP-33L1-6 phases=3 Bus1=rim_490000072.1.2.3 Bus2=rim_490000096.1.2.3 Switch=y r1=1e-4 r0=1e-4 x1=0 x0=0 c1=0 c0=0
New Line.ATSW_PA-OE-SE-CSO-TRM-CSTP-23429-4 phases=3 Bus1=cso_490000119.1.2.3 Bus2=cso_490000120.1.2.3 Switch=y r1=1e-4 r0=1e-4 x1=0 x0=0 c1=0 c0=0
New Line.ATSW_PA-SL-SE-RIM-TRM-CSTP-33L1-5 phases=3 Bus1=rim_490000072.1.2.3 Bus2=rim_490000096.1.2.3 Switch=y r1=1e-4 r0=1e-4 x1=0 x0=0 c1=0 c0=0
New Line.ATSW_PA-SL-SE-RIM-TRM-CSTP-33T1-5 phases=3 Bus1=rim_490000072.1.2.3 Bus2=rim_490000096.1.2.3 Switch=y r1=1e-4 r0=1e-4 x1=0 x0=0 c1=0 c0=0
New Line.ATSW_PA-OE-SE-MAL-TRM-CSTP-33E1-5 phases=3 Bus1=mol_490000570.1.2.3 Bus2=mol_471000006.1.2.3 Switch=y r1=1e-4 r0=1e-4 x1=0 x0=0 c1=0 c0=0
New Line.ATSW_PA-SL-SE-TUM-TRM-CSTP-7429-12 phases=3 Bus1=tum_490000076.1.2.3 Bus2=tcm_lt-tcm-sfx.1.2.3 Switch=y r1=1e-4 r0=1e-4 x1=0 x0=0 c1=0 c0=0
New Line.ATSW_PA-SL-SE-GOI-TRM-CSTP-6229-6 phases=3 Bus1=goi_490000089.1.2.3 Bus2=goi_li_goi_tuc_1.1.2.3 Switch=y r1=1e-4 r0=1e-4 x1=0 x0=0 c1=0 c0=0
New Line.ATSW_PA-ND-SE-TAI-TRM-CSTP-6029-26 phases=3 Bus1=tai_490000346.1.2.3 Bus2=tai_490000347.1.2.3 Switch=y r1=1e-4 r0=1e-4 x1=0 x0=0 c1=0 c0=0
New Line.ATSW_PA-ND-SE-TAI-TRM-CSTP-6029-24 phases=3 Bus1=tai_490000346.1.2.3 Bus2=tai_490000347.1.2.3 Switch=y r1=1e-4 r0=1e-4 x1=0 x0=0 c1=0 c0=0
New Line.ATSW_PA-ND-SE-ABA-TRM-CSTP-3329-14 phases=3 Bus1=aba_490000531.1.2.3 Bus2=aba_490000532.1.2.3 Switch=y r1=1e-4 r0=1e-4 x1=0 x0=0 c1=0 c0=0
New Line.ATSW_PA-SL-SE-RIM-TRM-CSTP-33T2-4 phases=3 Bus1=rim_490000072.1.2.3 Bus2=rim_490000096.1.2.3 Switch=y r1=1e-4 r0=1e-4 x1=0 x0=0 c1=0 c0=0
New Line.ATSW_PA-ND-SE-TAI-TRM-CSTP-6029-30 phases=3 Bus1=tai_490000346.1.2.3 Bus2=tai_490000347.1.2.3 Switch=y r1=1e-4 r0=1e-4 x1=0 x0=0 c1=0 c0=0
New Line.ATSW_PA-SL-SE-RIM-TRM-CSTP-33T1-4 phases=3 Bus1=rim_490000072.1.2.3 Bus2=rim_490000096.1.2.3 Switch=y r1=1e-4 r0=1e-4 x1=0 x0=0 c1=0 c0=0
New Line.ATSW_PA-OE-SE-MAL-TRM-CSTP-33E1-6 phases=3 Bus1=mol_490000570.1.2.3 Bus2=mol_471000006.1.2.3 Switch=y r1=1e-4 r0=1e-4 x1=0 x0=0 c1=0 c0=0
New Line.ATSW_PA-OE-SE-CSO-TRM-CSTP-23429-8 phases=3 Bus1=cso_490000119.1.2.3 Bus2=cso_490000120.1.2.3 Switch=y r1=1e-4 r0=1e-4 x1=0 x0=0 c1=0 c0=0
New Line.ATSW_PA-OE-SE-CSO-TRM-CSTP-23429-22 phases=3 Bus1=cso_490000119.1.2.3 Bus2=cso_490000120.1.2.3 Switch=y r1=1e-4 r0=1e-4 x1=0 x0=0 c1=0 c0=0
New Line.ATSW_PA-ND-SE-ABA-TRM-CSTP-3329-16 phases=3 Bus1=aba_490000531.1.2.3 Bus2=aba_490000590.1.2.3 Switch=y r1=1e-4 r0=1e-4 x1=0 x0=0 c1=0 c0=0
New Line.ATSW_PA-SL-SE-TUM-TRM-CSTP-7429-18 phases=3 Bus1=tum_490000076.1.2.3 Bus2=tum_490000105.1.2.3 Switch=y r1=1e-4 r0=1e-4 x1=0 x0=0 c1=0 c0=0
New Line.ATSW_PA-ND-SE-TAI-TRM-CSTP-6029-28 phases=3 Bus1=tai_490000346.1.2.3 Bus2=tai_490000347.1.2.3 Switch=y r1=1e-4 r0=1e-4 x1=0 x0=0 c1=0 c0=0
New Line.ATSW_PA-OE-SE-CSO-TRM-CSTP-23429-10/3 phases=3 Bus1=cso_490000119.1.2.3 Bus2=cso_490000120.1.2.3 Switch=y r1=1e-4 r0=1e-4 x1=0 x0=0 c1=0 c0=0
New Line.ATSW_PA-SL-SE-RIM-TRM-CSTP-33T2-6 phases=3 Bus1=rim_490000072.1.2.3 Bus2=rim_490000096.1.2.3 Switch=y r1=1e-4 r0=1e-4 x1=0 x0=0 c1=0 c0=0
New Line.ATSW_PA-OE-SE-MAL-TRM-CSTP-33T1-6 phases=3 Bus1=mol_490000570.1.2.3 Bus2=mol_490000571.1.2.3 Switch=y r1=1e-4 r0=1e-4 x1=0 x0=0 c1=0 c0=0
New Line.ATSW_PA-ND-SE-ABA-TRM-CSTP-3329-30 phases=3 Bus1=aba_490000531.1.2.3 Bus2=aba_490000532.1.2.3 Switch=y r1=1e-4 r0=1e-4 x1=0 x0=0 c1=0 c0=0
New Line.ATSW_PA-ND-SE-ABA-TRM-CSTP-32V2-5/7 phases=3 Bus1=aba_490000531.1.2.3 Bus2=aba_02v2.1.2.3 Switch=y r1=1e-4 r0=1e-4 x1=0 x0=0 c1=0 c0=0
New Line.ATSW_PA-SL-SE-TUM-TRM-CSTP-7429-3/10 phases=3 Bus1=tum_490000076.1.2.3 Bus2=tcm_lt-tcm-sfx.1.2.3 Switch=y r1=1e-4 r0=1e-4 x1=0 x0=0 c1=0 c0=0
New Line.ATSW_PA-SL-SE-TUM-TRM-CSTP-7429-1/2 phases=3 Bus1=tum_490000076.1.2.3 Bus2=tum_lt-xin_tcm.1.2.3 Switch=y r1=1e-4 r0=1e-4 x1=0 x0=0 c1=0 c0=0
New Line.ATSW_PA-OE-SE-CSO-TRM-CSTP-23429-2/1 phases=3 Bus1=cso_490000119.1.2.3 Bus2=cso_490000120.1.2.3 Switch=y r1=1e-4 r0=1e-4 x1=0 x0=0 c1=0 c0=0
New Line.ATSW_PA-ND-SE-ABA-TRM-CSTP-3329-2/1 phases=3 Bus1=aba_490000531.1.2.3 Bus2=aba_lt_vic_aba_1.1.2.3 Switch=y r1=1e-4 r0=1e-4 x1=0 x0=0 c1=0 c0=0
New Line.ATSW_PA-SL-SE-RIM-TRM-CSTP-33T2-5 phases=3 Bus1=rim_490000072.1.2.3 Bus2=rim_490000096.1.2.3 Switch=y r1=1e-4 r0=1e-4 x1=0 x0=0 c1=0 c0=0
New Line.ATSW_PA-OE-SE-MAL-TRM-CSTP-33E1-4 phases=3 Bus1=mol_490000570.1.2.3 Bus2=mol_471000006.1.2.3 Switch=y r1=1e-4 r0=1e-4 x1=0 x0=0 c1=0 c0=0
New Line.ATSW_PA-SL-SE-TUM-TRM-CSTP-7429-22 phases=3 Bus1=tum_490000076.1.2.3 Bus2=tum_490000105.1.2.3 Switch=y r1=1e-4 r0=1e-4 x1=0 x0=0 c1=0 c0=0
New Line.ATSW_PA-ND-SE-ABA-TRM-CSTP-3329-4 phases=3 Bus1=aba_490000531.1.2.3 Bus2=aba_lt_vic_aba_1.1.2.3 Switch=y r1=1e-4 r0=1e-4 x1=0 x0=0 c1=0 c0=0
New Line.ATSW_PA-OE-SE-MAL-TRM-CSTP-33L1-4 phases=3 Bus1=mol_490000570.1.2.3 Bus2=mol_lt_alenquer.1.2.3 Switch=y r1=1e-4 r0=1e-4 x1=0 x0=0 c1=0 c0=0
New Line.ATSW_PA-OE-SE-CSO-TRM-CSTP-23429-14 phases=3 Bus1=cso_490000119.1.2.3 Bus2=cso_uhe_curua_buriti.1.2.3 Switch=y r1=1e-4 r0=1e-4 x1=0 x0=0 c1=0 c0=0
New Line.ATSW_PA-OE-SE-CSO-TRM-CSTP-23429-24 phases=3 Bus1=cso_490000119.1.2.3 Bus2=cso_490000120.1.2.3 Switch=y r1=1e-4 r0=1e-4 x1=0 x0=0 c1=0 c0=0
New Line.ATSW_PA-SL-SE-TUM-TRM-CSTP-7429-16 phases=3 Bus1=tum_490000076.1.2.3 Bus2=tum_490000105.1.2.3 Switch=y r1=1e-4 r0=1e-4 x1=0 x0=0 c1=0 c0=0
New Line.ATSW_PA-OE-SE-CSO-TRM-CSTP-23429-6 phases=3 Bus1=cso_490000119.1.2.3 Bus2=cso_490000120.1.2.3 Switch=y r1=1e-4 r0=1e-4 x1=0 x0=0 c1=0 c0=0
New Line.ATSW_PA-OE-SE-MAL-TRM-CSTP-33T2-5 phases=3 Bus1=mol_490000570.1.2.3 Bus2=mol_490000572.1.2.3 Switch=y r1=1e-4 r0=1e-4 x1=0 x0=0 c1=0 c0=0
New Line.ATSW_PA-ND-SE-ABA-TRM-CSTP-3329-6 phases=3 Bus1=aba_490000531.1.2.3 Bus2=aba_490000532.1.2.3 Switch=y r1=1e-4 r0=1e-4 x1=0 x0=0 c1=0 c0=0
New Line.ATSW_PA-SL-SE-GOI-TRM-CSTP-6229-1/2 phases=3 Bus1=goi_490000089.1.2.3 Bus2=goi_li_goi_tuc_1.1.2.3 Switch=y r1=1e-4 r0=1e-4 x1=0 x0=0 c1=0 c0=0
New Line.ATSW_PA-OE-SE-MAL-TRM-CSTP-33L1-6 phases=3 Bus1=mol_490000570.1.2.3 Bus2=mol_lt_alenquer.1.2.3 Switch=y r1=1e-4 r0=1e-4 x1=0 x0=0 c1=0 c0=0
New Line.ATSW_PA-ND-SE-PAR-TRM-CSTP-3229-70 phases=3 Bus1=tai_490000346.1.2.3 Bus2=tai_490000347.1.2.3 Switch=y r1=1e-4 r0=1e-4 x1=0 x0=0 c1=0 c0=0
New Line.ATSW_PA-ND-SE-ABA-TRM-CSTP-32V2-6 phases=3 Bus1=aba_490000531.1.2.3 Bus2=aba_02v2.1.2.3 Switch=y r1=1e-4 r0=1e-4 x1=0 x0=0 c1=0 c0=0
New Line.ATSW_PA-SL-SE-TUM-TRM-DISJ-7452-3 phases=3 Bus1=tum_490000076.1.2.3 Bus2=tum_490000105.1.2.3 Switch=y r1=1e-4 r0=1e-4 x1=0 x0=0 c1=0 c0=0
New Line.ATSW_PA-ND-SE-ABA-TRM-CSTP-32V2-4 phases=3 Bus1=aba_490000531.1.2.3 Bus2=aba_02v2.1.2.3 Switch=y r1=1e-4 r0=1e-4 x1=0 x0=0 c1=0 c0=0
New Line.ATSW_PA-SL-SE-RIM-TRM-DISJ-13L1 phases=3 Bus1=rim_lt_xin_ren_1.1.2.3 Bus2=rim_490000072.1.2.3 Switch=y r1=1e-4 r0=1e-4 x1=0 x0=0 c1=0 c0=0
New Line.ATSW_PA-ND-SE-TAI-TRM-CSTP-6029-22 phases=3 Bus1=tai_490000346.1.2.3 Bus2=tai_490000347.1.2.3 Switch=y r1=1e-4 r0=1e-4 x1=0 x0=0 c1=0 c0=0
New Line.ATSW_PA-ND-SE-CAP-TRM-CSTP-1229-26 phases=3 Bus1=cap_490000177.1.2.3 Bus2=cap_490000178.1.2.3 Switch=y r1=1e-4 r0=1e-4 x1=0 x0=0 c1=0 c0=0
New Line.ATSW_PA-ND-SE-CAP-TRM-CSTP-1229-2/1229-1 phases=3 Bus1=cap_490000177.1.2.3 Bus2=cap_490000178.1.2.3 Switch=y r1=1e-4 r0=1e-4 x1=0 x0=0 c1=0 c0=0
New Line.ATSW_PA-ND-SE-CAP-TRM-CSTP-1229-6 phases=3 Bus1=cap_490000177.1.2.3 Bus2=cap_490000178.1.2.3 Switch=y r1=1e-4 r0=1e-4 x1=0 x0=0 c1=0 c0=0
New Line.ATSW_PA-ND-SE-CAP-TRM-CSTP-1229-152 phases=3 Bus1=cap_490000175.1.2.3 Bus2=cap_490000176.1.2.3 Switch=y r1=1e-4 r0=1e-4 x1=0 x0=0 c1=0 c0=0
New Line.ATSW_PA-ND-SE-CAP-TRM-CSTP-1229-24/1229-7 phases=3 Bus1=cap_490000177.1.2.3 Bus2=cap_490000178.1.2.3 Switch=y r1=1e-4 r0=1e-4 x1=0 x0=0 c1=0 c0=0
New Line.ATSW_PA-ND-SE-CAP-TRM-CSTP-1229-136 phases=3 Bus1=cap_490000175.1.2.3 Bus2=cap_490000176.1.2.3 Switch=y r1=1e-4 r0=1e-4 x1=0 x0=0 c1=0 c0=0
New Line.ATSW_PA-ND-SE-CAP-TRM-CSTP-33T4-5 phases=3 Bus1=cap03b1.1.2.3 Bus2=cap09b1.1.2.3 Switch=y r1=1e-4 r0=1e-4 x1=0 x0=0 c1=0 c0=0
New Line.ATSW_PA-ND-SE-CAP-TRM-CSTP-1229-32 phases=3 Bus1=cap_490000177.1.2.3 Bus2=cap_490000178.1.2.3 Switch=y r1=1e-4 r0=1e-4 x1=0 x0=0 c1=0 c0=0
New Line.ATSW_PA-ND-SE-CAP-TRM-CSTP-1229-18 phases=3 Bus1=cap_490000177.1.2.3 Bus2=cap_490000178.1.2.3 Switch=y r1=1e-4 r0=1e-4 x1=0 x0=0 c1=0 c0=0
New Line.ATSW_PA-ND-SE-CAP-TRM-CSTP-1229-4 phases=3 Bus1=cap_490000177.1.2.3 Bus2=cap_490000178.1.2.3 Switch=y r1=1e-4 r0=1e-4 x1=0 x0=0 c1=0 c0=0
New Line.ATSW_PA-ND-SE-CAP-TRM-CSTP-1229-8/1229-3 phases=3 Bus1=cap_490000177.1.2.3 Bus2=cap_490000178.1.2.3 Switch=y r1=1e-4 r0=1e-4 x1=0 x0=0 c1=0 c0=0
New Line.ATSW_PA-ND-SE-CAP-TRM-CSTP-1229-12 phases=3 Bus1=cap_490000177.1.2.3 Bus2=cap_490000178.1.2.3 Switch=y r1=1e-4 r0=1e-4 x1=0 x0=0 c1=0 c0=0
New Line.ATSW_PA-ND-SE-CAP-TRM-CSTP-33T4-6 phases=3 Bus1=cap03b1.1.2.3 Bus2=cap09b1.1.2.3 Switch=y r1=1e-4 r0=1e-4 x1=0 x0=0 c1=0 c0=0
New Line.ATSW_PA-ND-SE-CAP-TRM-CSTP-1229-14 phases=3 Bus1=cap_490000177.1.2.3 Bus2=cap_490000178.1.2.3 Switch=y r1=1e-4 r0=1e-4 x1=0 x0=0 c1=0 c0=0
New Line.ATSW_PA-ND-SE-CAP-TRM-CSTP-29-138/29-17 phases=3 Bus1=cap_490000175.1.2.3 Bus2=cap_lt_cap_vot.1.2.3 Switch=y r1=1e-4 r0=1e-4 x1=0 x0=0 c1=0 c0=0
New Line.ATSW_PA-ND-SE-CAP-TRM-CSTP-1229-154 phases=3 Bus1=cap_490000175.1.2.3 Bus2=cap_490000176.1.2.3 Switch=y r1=1e-4 r0=1e-4 x1=0 x0=0 c1=0 c0=0
New Line.ATSW_PA-ND-SE-CAP-TRM-CSTP-1229-92 phases=3 Bus1=cap_490000177.1.2.3 Bus2=cap_490000178.1.2.3 Switch=y r1=1e-4 r0=1e-4 x1=0 x0=0 c1=0 c0=0
New Line.ATSW_PA-ND-SE-CAP-TRM-CSTP-1229-30/1229-9 phases=3 Bus1=cap_490000177.1.2.3 Bus2=cap_490000178.1.2.3 Switch=y r1=1e-4 r0=1e-4 x1=0 x0=0 c1=0 c0=0
New Line.ATSW_PA-ND-SE-CAP-TRM-CSTP-1229-140 phases=3 Bus1=cap_490000175.1.2.3 Bus2=cap_490000176.1.2.3 Switch=y r1=1e-4 r0=1e-4 x1=0 x0=0 c1=0 c0=0
New Line.ATSW_PA-ND-SE-CAP-TRM-CSTP-1229-16/1229-5 phases=3 Bus1=cap_490000177.1.2.3 Bus2=cap_490000178.1.2.3 Switch=y r1=1e-4 r0=1e-4 x1=0 x0=0 c1=0 c0=0
New Line.ATSW_PA-ND-SE-CAP-TRM-CSTP-1229-150 phases=3 Bus1=cap_490000175.1.2.3 Bus2=cap_490000176.1.2.3 Switch=y r1=1e-4 r0=1e-4 x1=0 x0=0 c1=0 c0=0
New Line.ATSW_PA-ND-SE-CAP-TRM-CSTP-33T4-4 phases=3 Bus1=cap03b1.1.2.3 Bus2=cap09b1.1.2.3 Switch=y r1=1e-4 r0=1e-4 x1=0 x0=0 c1=0 c0=0
New Line.ATSW_PA-ND-SE-CAP-TRM-CSTP-1229-90/1229-15 phases=3 Bus1=cap_490000177.1.2.3 Bus2=cap_490000178.1.2.3 Switch=y r1=1e-4 r0=1e-4 x1=0 x0=0 c1=0 c0=0
New Line.ATSW_PA-ND-SE-CAP-TRM-CSTP-1229-28 phases=3 Bus1=cap_490000177.1.2.3 Bus2=cap_490000178.1.2.3 Switch=y r1=1e-4 r0=1e-4 x1=0 x0=0 c1=0 c0=0
New Line.ATSW_PA-ND-SE-CAP-TRM-CSTP-1229-88 phases=3 Bus1=cap_490000177.1.2.3 Bus2=cap_490000178.1.2.3 Switch=y r1=1e-4 r0=1e-4 x1=0 x0=0 c1=0 c0=0
New Line.ATSW_PA-ND-SE-CAP-TRM-CSTP-1229-10 phases=3 Bus1=cap_490000177.1.2.3 Bus2=cap_490000178.1.2.3 Switch=y r1=1e-4 r0=1e-4 x1=0 x0=0 c1=0 c0=0
New Line.ATSW_PA-ND-SE-CAP-TRM-CSTP-1229-22 phases=3 Bus1=cap_490000177.1.2.3 Bus2=cap_490000178.1.2.3 Switch=y r1=1e-4 r0=1e-4 x1=0 x0=0 c1=0 c0=0
