AMOSTRA/_AT/Barras_AT.dss
! ==========================================================
! BARRAS DE AT DAS SUBESTACOES — fechamento da malha de 88 kV
! 
! A BDGD nao modela o barramento interno da subestacao: os
! circuitos de AT que chegam e que saem nunca se encontram, e a
! malha fica em 844 ilhas. Aqui cada subestacao ganha a sua barra
! e os trechos que lhe pertencem sao ligados a ela.
! 
! Vinculo vindo de UNSEAT.SUB e UNTRAT.SUB (dado declarado) e,
! onde estes faltam, do nome do circuito em CTAT.NOME via
! dados/de_para_mnemonicos.csv.
! ==========================================================
! ABA: 1 trecho(s) de AT chegando na barra
New Line.BAT_ABA_1 phases=3 Bus1=barra_at_aba.1.2.3 Bus2=aba_490000531.1.2.3 Switch=y r1=0.0001 r0=0.0001 x1=0 x0=0 c1=0 c0=0
! CAP: 3 trecho(s) de AT chegando na barra
New Line.BAT_CAP_1 phases=3 Bus1=barra_at_cap.1.2.3 Bus2=cap_490000175.1.2.3 Switch=y r1=0.0001 r0=0.0001 x1=0 x0=0 c1=0 c0=0
New Line.BAT_CAP_2 phases=3 Bus1=barra_at_cap.1.2.3 Bus2=cap_490000177.1.2.3 Switch=y r1=0.0001 r0=0.0001 x1=0 x0=0 c1=0 c0=0
New Line.BAT_CAP_3 phases=3 Bus1=barra_at_cap.1.2.3 Bus2=cap03b1.1.2.3 Switch=y r1=0.0001 r0=0.0001 x1=0 x0=0 c1=0 c0=0
! CSO: 1 trecho(s) de AT chegando na barra
New Line.BAT_CSO_1 phases=3 Bus1=barra_at_cso.1.2.3 Bus2=cso_490000119.1.2.3 Switch=y r1=0.0001 r0=0.0001 x1=0 x0=0 c1=0 c0=0
! GOI: 1 trecho(s) de AT chegando na barra
New Line.BAT_GOI_1 phases=3 Bus1=barra_at_goi.1.2.3 Bus2=goi_490000089.1.2.3 Switch=y r1=0.0001 r0=0.0001 x1=0 x0=0 c1=0 c0=0
! MOL: 2 trecho(s) de AT chegando na barra
New Line.BAT_MOL_1 phases=3 Bus1=barra_at_mol.1.2.3 Bus2=mol_490000570.1.2.3 Switch=y r1=0.0001 r0=0.0001 x1=0 x0=0 c1=0 c0=0
New Line.BAT_MOL_2 phases=3 Bus1=barra_at_mol.1.2.3 Bus2=mal_490000570.1.2.3 Switch=y r1=0.0001 r0=0.0001 x1=0 x0=0 c1=0 c0=0
! RIM: 1 trecho(s) de AT chegando na barra
New Line.BAT_RIM_1 phases=3 Bus1=barra_at_rim.1.2.3 Bus2=rim_490000072.1.2.3 Switch=y r1=0.0001 r0=0.0001 x1=0 x0=0 c1=0 c0=0
! TAI: 2 trecho(s) de AT chegando na barra
New Line.BAT_TAI_1 phases=3 Bus1=barra_at_tai.1.2.3 Bus2=tai_490000588.1.2.3 Switch=y r1=0.0001 r0=0.0001 x1=0 x0=0 c1=0 c0=0
New Line.BAT_TAI_2 phases=3 Bus1=barra_at_tai.1.2.3 Bus2=tai_490000346.1.2.3 Switch=y r1=0.0001 r0=0.0001 x1=0 x0=0 c1=0 c0=0
! TUM: 1 trecho(s) de AT chegando na barra
New Line.BAT_TUM_1 phases=3 Bus1=barra_at_tum.1.2.3 Bus2=tum_490000076.1.2.3 Switch=y r1=0.0001 r0=0.0001 x1=0 x0=0 c1=0 c0=0
