AMOSTRA/_AT/Trafos_AT.dss
! ==========================================================
! TRANSFORMADORES DE POTENCIA — UNTRAT + EQTRAT
! Primario: PAC_1 (malha de 88 kV, vinda de SSDAT).
! Secundario: a BARRA de MT (BARR_2), compartilhada pelos
! alimentadores da subestacao.
! Xhl NAO vem da BDGD — adotado por faixa de potencia (ver
! XHL_POR_MVA). %loadloss = PER_TOT - PER_FER, %noloadloss =
! PER_FER, ambos da BDGD.
! O tap do secundario reproduz CTMT.TEN_OPE.
! ==========================================================
New Transformer.AT_FIC_TUM_TRM phases=3 windings=2 Xhl=9.00
~ %loadloss=1.000 %noloadloss=3.000
~ wdg=1 bus=barra_at_tum.1.2.3 conn=delta kV=138.0000 kVA=15000
~ wdg=2 bus=tum01b1_34p5kv.1.2.3.0 conn=wye kV=34.5000 kVA=15000 tap=1.0000
New Transformer.AT_CAP-RI phases=3 windings=2 Xhl=9.00
~ %loadloss=1.000 %noloadloss=3.000
~ wdg=1 bus=barra_at_cap.1.2.3 conn=delta kV=138.0000 kVA=20000
~ wdg=2 bus=cap09b1.1.2.3.0 conn=wye kV=34.5000 kVA=20000 tap=1.0000
New Transformer.AT_MAL-03T1_RI phases=3 windings=2 Xhl=9.00
~ %loadloss=1.000 %noloadloss=3.000
~ wdg=1 bus=mal_490000570.1.2.3 conn=delta kV=138.0000 kVA=15000
~ wdg=2 bus=mol01b1.1.2.3.0 conn=wye kV=13.8000 kVA=15000 tap=1.0000
New Transformer.AT_ABA-02T1 phases=3 windings=2 Xhl=10.50
~ %loadloss=1.000 %noloadloss=3.000
~ wdg=1 bus=aba_490000531.1.2.3 conn=delta kV=88.0000 kVA=30000
~ wdg=2 bus=aba01b1.1.2.3.0 conn=wye kV=13.8000 kVA=30000 tap=1.0000
New Transformer.AT_CAP-T-3 phases=3 windings=2 Xhl=10.50
~ %loadloss=1.000 %noloadloss=3.000
~ wdg=1 bus=cap_490000175.1.2.3 conn=delta kV=138.0000 kVA=30000
~ wdg=2 bus=cap01b1.1.2.3.0 conn=wye kV=13.8000 kVA=30000 tap=1.0000
New Transformer.AT_CSO-RI-1 phases=3 windings=2 Xhl=9.00
~ %loadloss=1.000 %noloadloss=3.000
~ wdg=1 bus=cso_490000119.1.2.3 conn=delta kV=138.0000 kVA=12500
~ wdg=2 bus=cso01b1.1.2.3.0 conn=wye kV=13.8000 kVA=12500 tap=1.0000
New Transformer.AT_CSO-T-1 phases=3 windings=2 Xhl=9.00
~ %loadloss=1.000 %noloadloss=3.000
~ wdg=1 bus=cso_490000119.1.2.3 conn=delta kV=138.0000 kVA=12500
~ wdg=2 bus=cso01b1.1.2.3.0 conn=wye kV=13.8000 kVA=12500 tap=1.0000
New Transformer.AT_GOI-RI-1 phases=3 windings=2 Xhl=7.00
~ %loadloss=1.000 %noloadloss=3.000
~ wdg=1 bus=goi_490000089.1.2.3 conn=delta kV=88.0000 kVA=6300
~ wdg=2 bus=goi01b1.1.2.3.0 conn=wye kV=13.8000 kVA=6300 tap=1.0000
New Transformer.AT_GOI-RI-2 phases=3 windings=2 Xhl=7.00
~ %loadloss=1.000 %noloadloss=3.000
~ wdg=1 bus=barra_at_goi.1.2.3 conn=delta kV=88.0000 kVA=6300
~ wdg=2 bus=goi01b1.1.2.3.0 conn=wye kV=13.8000 kVA=6300 tap=1.0000
New Transformer.AT_GOI-T-1 phases=3 windings=2 Xhl=9.00
~ %loadloss=1.000 %noloadloss=3.000
~ wdg=1 bus=goi_490000089.1.2.3 conn=delta kV=88.0000 kVA=15000
~ wdg=2 bus=goi01b1.1.2.3.0 conn=wye kV=13.8000 kVA=15000 tap=1.0000
New Transformer.AT_TAI-T-1 phases=3 windings=2 Xhl=9.00
~ %loadloss=1.000 %noloadloss=3.000
~ wdg=1 bus=tai_490000346.1.2.3 conn=delta kV=138.0000 kVA=15000
~ wdg=2 bus=tai01b1.1.2.3.0 conn=wye kV=13.8000 kVA=15000 tap=1.0000
New Transformer.AT_MAL-03T1 phases=3 windings=2 Xhl=9.00
~ %loadloss=1.000 %noloadloss=3.000
~ wdg=1 bus=mal_490000570.1.2.3 conn=delta kV=138.0000 kVA=15000
~ wdg=2 bus=mol01b1.1.2.3.0 conn=wye kV=13.8000 kVA=15000 tap=1.0000
New Transformer.AT_MAL-03T2 phases=3 windings=2 Xhl=9.00
~ %loadloss=1.000 %noloadloss=3.000
~ wdg=1 bus=mal_490000570.1.2.3 conn=delta kV=138.0000 kVA=15000
~ wdg=2 bus=mol01b1.1.2.3.0 conn=wye kV=13.8000 kVA=15000 tap=1.0000
New Transformer.AT_ABA-02T3 phases=3 windings=2 Xhl=10.50
~ %loadloss=1.000 %noloadloss=3.000
~ wdg=1 bus=aba_490000531.1.2.3 conn=delta kV=88.0000 kVA=30000
~ wdg=2 bus=aba09b1.1.2.3.0 conn=wye kV=34.5000 kVA=30000 tap=1.0000
New Transformer.AT_RIM-03T1 phases=3 windings=2 Xhl=9.00
~ %loadloss=1.000 %noloadloss=3.000
~ wdg=1 bus=rim_490000072.1.2.3 conn=delta kV=138.0000 kVA=12500
~ wdg=2 bus=rim01b1.1.2.3.0 conn=wye kV=13.8000 kVA=12500 tap=1.0000
New Transformer.AT_RIM-03T2 phases=3 windings=2 Xhl=7.00
~ %loadloss=1.000 %noloadloss=3.000
~ wdg=1 bus=rim_490000072.1.2.3 conn=delta kV=138.0000 kVA=6300
~ wdg=2 bus=rim01b1_34p5kv.1.2.3.0 conn=wye kV=34.5000 kVA=6300 tap=1.0000
New Transformer.AT_TAI-T-2 phases=3 windings=2 Xhl=9.00
~ %loadloss=1.000 %noloadloss=3.000
~ wdg=1 bus=tai_490000346.1.2.3 conn=delta kV=138.0000 kVA=15000
~ wdg=2 bus=tai01b1_34p5kv.1.2.3.0 conn=wye kV=34.5000 kVA=15000 tap=1.0000
New Transformer.AT_TUM-T-1 phases=3 windings=2 Xhl=10.50
~ %loadloss=1.000 %noloadloss=3.000
~ wdg=1 bus=tum_490000076.1.2.3 conn=delta kV=138.0000 kVA=30000
~ wdg=2 bus=tum01b1.1.2.3.0 conn=wye kV=13.8000 kVA=30000 tap=1.0000
New Transformer.AT_TUM-T-2 phases=3 windings=2 Xhl=9.00
~ %loadloss=1.000 %noloadloss=3.000
~ wdg=1 bus=tum_490000076.1.2.3.0 conn=wye kV=138.0000 kVA=15000
~ wdg=2 bus=tum01b1_34p5kv.1.2.3.0 conn=wye kV=34.5000 kVA=15000 tap=1.0000
