AMOSTRA/CSO/_LIGACAO.dss
! ==========================================================================
!  LIGACAO A COMPONENTE DESENERGIZADA — achado 33, forma B
! ==========================================================================
!  ISTO E MODELAGEM, NAO CONVERSAO, E INVENTA UM ELO QUE A BDGD NAO DECLARA.
!
!  A rede destes alimentadores esta inteira numa componente conexa grande,
!  e a cabeceira declarada no CTMT.PAC_INI esta numa ilha pequena ao lado.
!  A BDGD nao diz qual e o elo entre as duas. Aqui ele e criado, ligando a
!  barra de MT da subestacao a barra de MAIOR GRAU da componente — a que
!  mais se parece com um tronco.
!
!  O elo e do mesmo tipo do vao de saida: chave de impedancia desprezivel.
!  Ele representa o arranjo interno da subestacao, que a BDGD nao modela.
!
!  4 elo(s), energizando 2,449 cargas em 21,911 barras.
!
!  Para rodar SEM esta premissa, apague o `redirect _LIGACAO.dss` do MASTER.
!  O modelo continua valido; o que muda e quanta rede fica energizada.
! ==========================================================================

New Line.VAO_EXTRA_1 phases=3 Bus1=cso01b1.1.2.3 Bus2=cso09b1.1.2.3 Switch=y r1=0.0001 r0=0.0001 x1=0 x0=0 c1=0 c0=0   ! componente de 12,375 barras e 1,392 cargas, ancora de grau 5 em 7.9674 kV
New Line.VAO_EXTRA_2 phases=3 Bus1=cso01b1.1.2.3 Bus2=25448-11360430.1.2.3 Switch=y r1=0.0001 r0=0.0001 x1=0 x0=0 c1=0 c0=0   ! componente de 4,689 barras e 462 cargas, ancora de grau 4 em 7.9674 kV
New Line.VAO_EXTRA_3 phases=3 Bus1=cso01b1.1.2.3 Bus2=25448-12271384.1.2.3 Switch=y r1=0.0001 r0=0.0001 x1=0 x0=0 c1=0 c0=0   ! componente de 2,593 barras e 433 cargas, ancora de grau 4 em 7.9674 kV
New Line.VAO_EXTRA_4 phases=3 Bus1=cso01b1.1.2.3 Bus2=16088-10866653.1.2.3 Switch=y r1=0.0001 r0=0.0001 x1=0 x0=0 c1=0 c0=0   ! componente de 2,254 barras e 162 cargas, ancora de grau 4 em 7.9674 kV
! descartada: 1 barras, 0 cargas — poucas cargas
! descartada: 1 barras, 0 cargas — poucas cargas
! descartada: 1 barras, 0 cargas — poucas cargas
! descartada: 1 barras, 0 cargas — poucas cargas
! descartada: 1 barras, 0 cargas — poucas cargas
! descartada: 1 barras, 0 cargas — poucas cargas
! descartada: 1 barras, 0 cargas — poucas cargas
! descartada: 1 barras, 0 cargas — poucas cargas
! descartada: 1 barras, 0 cargas — poucas cargas
! descartada: 1 barras, 0 cargas — poucas cargas
! descartada: 1 barras, 0 cargas — poucas cargas
! descartada: 1 barras, 0 cargas — poucas cargas
! descartada: 1 barras, 0 cargas — poucas cargas
! descartada: 1 barras, 0 cargas — poucas cargas
! descartada: 1 barras, 0 cargas — poucas cargas
! descartada: 1 barras, 0 cargas — poucas cargas
! descartada: 1 barras, 0 cargas — poucas cargas
! descartada: 1 barras, 0 cargas — poucas cargas
! descartada: 1 barras, 0 cargas — poucas cargas
! descartada: 1 barras, 0 cargas — poucas cargas
! descartada: 1 barras, 0 cargas — poucas cargas
! descartada: 1 barras, 0 cargas — poucas cargas
