AMOSTRA/MOL/_LIGACAO.dss
! ==========================================================================
!  LIGACAO A COMPONENTE DESENERGIZADA — achado 33, forma B
! ==========================================================================
!  ISTO E MODELAGEM, NAO CONVERSAO, E INVENTA UM ELO QUE A BDGD NAO DECLARA.
!
!  A rede destes alimentadores esta inteira numa componente conexa grande,
!  e a cabeceira declarada no CTMT.PAC_INI esta numa ilha pequena ao lado.
!  A BDGD nao diz qual e o elo entre as duas. Aqui ele e criado, ligando a
!  barra de MT da subestacao a barra de MAIOR GRAU da componente — a que
!  mais se parece com um tronco.
!
!  O elo e do mesmo tipo do vao de saida: chave de impedancia desprezivel.
!  Ele representa o arranjo interno da subestacao, que a BDGD nao modela.
!
!  12 elo(s), energizando 4,076 cargas em 20,902 barras.
!
!  Para rodar SEM esta premissa, apague o `redirect _LIGACAO.dss` do MASTER.
!  O modelo continua valido; o que muda e quanta rede fica energizada.
! ==========================================================================

New Line.VAO_EXTRA_1 phases=3 Bus1=mol01b1.1.2.3 Bus2=mol01b2.1.2.3 Switch=y r1=0.0001 r0=0.0001 x1=0 x0=0 c1=0 c0=0   ! componente de 3,276 barras e 684 cargas, ancora de grau 6 em 7.9674 kV
New Line.VAO_EXTRA_2 phases=3 Bus1=mol01b1.1.2.3 Bus2=25528-10147215.1.2.3 Switch=y r1=0.0001 r0=0.0001 x1=0 x0=0 c1=0 c0=0   ! componente de 2,956 barras e 610 cargas, ancora de grau 4 em 7.9674 kV
New Line.VAO_EXTRA_3 phases=3 Bus1=mol01b1.1.2.3 Bus2=25529-11385045.1.2.3 Switch=y r1=0.0001 r0=0.0001 x1=0 x0=0 c1=0 c0=0   ! componente de 2,121 barras e 448 cargas, ancora de grau 4 em 7.9674 kV
New Line.VAO_EXTRA_4 phases=3 Bus1=mol01b1.1.2.3 Bus2=25528-10148577.1.2.3 Switch=y r1=0.0001 r0=0.0001 x1=0 x0=0 c1=0 c0=0   ! componente de 1,872 barras e 446 cargas, ancora de grau 4 em 7.9674 kV
New Line.VAO_EXTRA_5 phases=3 Bus1=mol01b1.1.2.3 Bus2=25529-11894986.1.2.3 Switch=y r1=0.0001 r0=0.0001 x1=0 x0=0 c1=0 c0=0   ! componente de 2,486 barras e 429 cargas, ancora de grau 4 em 7.9674 kV
New Line.VAO_EXTRA_6 phases=3 Bus1=mol01b1.1.2.3 Bus2=25529-11895223.1.2.3 Switch=y r1=0.0001 r0=0.0001 x1=0 x0=0 c1=0 c0=0   ! componente de 1,928 barras e 418 cargas, ancora de grau 4 em 7.9674 kV
New Line.VAO_EXTRA_7 phases=3 Bus1=mol01b1.1.2.3 Bus2=25529-11807860.1.2.3 Switch=y r1=0.0001 r0=0.0001 x1=0 x0=0 c1=0 c0=0   ! componente de 1,934 barras e 346 cargas, ancora de grau 4 em 7.9674 kV
New Line.VAO_EXTRA_8 phases=3 Bus1=mol01b1.1.2.3 Bus2=25528-10152399.1.2.3 Switch=y r1=0.0001 r0=0.0001 x1=0 x0=0 c1=0 c0=0   ! componente de 2,130 barras e 318 cargas, ancora de grau 4 em 7.9674 kV
New Line.VAO_EXTRA_9 phases=3 Bus1=mol01b1.1.2.3 Bus2=25529-10147072.1.2.3 Switch=y r1=0.0001 r0=0.0001 x1=0 x0=0 c1=0 c0=0   ! componente de 736 barras e 172 cargas, ancora de grau 4 em 7.9674 kV
New Line.VAO_EXTRA_10 phases=3 Bus1=mol01b1.1.2.3 Bus2=25529-9043020.1.2.3 Switch=y r1=0.0001 r0=0.0001 x1=0 x0=0 c1=0 c0=0   ! componente de 791 barras e 118 cargas, ancora de grau 4 em 7.9674 kV
New Line.VAO_EXTRA_11 phases=3 Bus1=mol01b1.1.2.3 Bus2=25529-9049055.1.2.3 Switch=y r1=0.0001 r0=0.0001 x1=0 x0=0 c1=0 c0=0   ! componente de 339 barras e 59 cargas, ancora de grau 4 em 7.9674 kV
New Line.VAO_EXTRA_12 phases=3 Bus1=mol01b1.1.2.3 Bus2=25528-10149034.1.2.3 Switch=y r1=0.0001 r0=0.0001 x1=0 x0=0 c1=0 c0=0   ! componente de 333 barras e 28 cargas, ancora de grau 4 em 7.9674 kV
! descartada: 978 barras, 110 cargas — nenhuma barra na tensao de um vao
! descartada: 505 barras, 138 cargas — nenhuma barra na tensao de um vao
! descartada: 494 barras, 133 cargas — chave aberta declarada — outro alimentador e quem alimenta
! descartada: 293 barras, 105 cargas — chave aberta declarada — outro alimentador e quem alimenta
! descartada: 283 barras, 90 cargas — chave aberta declarada — outro alimentador e quem alimenta
! descartada: 238 barras, 39 cargas — nenhuma barra na tensao de um vao
! descartada: 227 barras, 25 cargas — chave aberta declarada — outro alimentador e quem alimenta
! descartada: 211 barras, 76 cargas — nenhuma barra na tensao de um vao
! descartada: 61 barras, 16 cargas — poucas cargas
! descartada: 2 barras, 0 cargas — poucas cargas
! descartada: 1 barras, 0 cargas — poucas cargas
! descartada: 1 barras, 0 cargas — poucas cargas
! descartada: 1 barras, 0 cargas — poucas cargas
! descartada: 1 barras, 0 cargas — poucas cargas
! descartada: 1 barras, 0 cargas — poucas cargas
! descartada: 1 barras, 0 cargas — poucas cargas
! descartada: 1 barras, 0 cargas — poucas cargas
! descartada: 1 barras, 0 cargas — poucas cargas
! descartada: 1 barras, 0 cargas — poucas cargas
! descartada: 1 barras, 0 cargas — poucas cargas
! descartada: 1 barras, 0 cargas — poucas cargas
! descartada: 1 barras, 0 cargas — poucas cargas
! descartada: 1 barras, 0 cargas — poucas cargas
! descartada: 1 barras, 0 cargas — poucas cargas
! descartada: 1 barras, 0 cargas — poucas cargas
! descartada: 1 barras, 0 cargas — poucas cargas
...